Version 4
SHEET 1 1032 792
WIRE -1088 -240 -1136 -240
WIRE -1056 -240 -1088 -240
WIRE -752 -240 -768 -240
WIRE -688 -240 -752 -240
WIRE -560 -240 -688 -240
WIRE -688 -224 -688 -240
WIRE -496 -192 -608 -192
WIRE -384 -192 -416 -192
WIRE -560 -176 -560 -240
WIRE -1136 -160 -1136 -240
WIRE -608 -160 -608 -192
WIRE -592 -160 -608 -160
WIRE -384 -144 -384 -192
WIRE -384 -144 -528 -144
WIRE -336 -144 -384 -144
WIRE -688 -128 -688 -144
WIRE -688 -128 -784 -128
WIRE -592 -128 -688 -128
WIRE -784 -96 -784 -128
WIRE -688 -96 -688 -128
WIRE -1136 0 -1136 -80
WIRE -784 0 -784 -32
WIRE -688 0 -688 -16
WIRE -560 0 -560 -112
WIRE -592 144 -624 144
WIRE -560 144 -592 144
WIRE -496 176 -624 176
WIRE -384 176 -416 176
WIRE -560 208 -560 144
WIRE -624 224 -624 176
WIRE -592 224 -624 224
WIRE -384 240 -384 176
WIRE -384 240 -528 240
WIRE -352 240 -384 240
WIRE -240 240 -272 240
WIRE -1088 256 -1136 256
WIRE -816 256 -1008 256
WIRE -720 256 -752 256
WIRE -624 256 -656 256
WIRE -592 256 -624 256
WIRE -560 336 -560 272
WIRE -736 352 -816 352
WIRE -624 352 -624 256
WIRE -624 352 -656 352
WIRE -1136 384 -1136 256
WIRE -592 416 -624 416
WIRE -560 416 -592 416
WIRE -192 416 -208 416
WIRE -160 416 -192 416
WIRE -496 448 -624 448
WIRE -384 448 -416 448
WIRE -240 448 -240 240
WIRE -112 448 -240 448
WIRE 0 448 -32 448
WIRE 48 448 0 448
WIRE -560 480 -560 416
WIRE -624 496 -624 448
WIRE -592 496 -624 496
WIRE -160 496 -160 416
WIRE -384 512 -384 448
WIRE -384 512 -528 512
WIRE -352 512 -384 512
WIRE -240 512 -240 448
WIRE -240 512 -272 512
WIRE -192 512 -240 512
WIRE -816 528 -944 528
WIRE -720 528 -752 528
WIRE -624 528 -656 528
WIRE -592 528 -624 528
WIRE 0 528 0 448
WIRE 0 528 -128 528
WIRE -192 544 -240 544
WIRE -240 592 -240 544
WIRE -1136 608 -1136 464
WIRE -560 608 -560 544
WIRE -160 608 -160 560
WIRE -736 624 -816 624
WIRE -624 624 -624 528
WIRE -624 624 -656 624
FLAG -1136 0 0
FLAG -1088 -240 VDD
FLAG -688 0 0
FLAG -784 0 0
FLAG -560 0 0
FLAG -752 -240 VDD
FLAG -336 -144 VREF
FLAG -560 336 0
FLAG -592 144 VDD
FLAG -816 352 VREF
FLAG -560 608 0
FLAG -592 416 VDD
FLAG -816 624 VREF
FLAG -1136 608 0
FLAG -240 592 VREF
FLAG -160 608 0
FLAG -192 416 VDD
SYMBOL voltage -1136 -176 R0
WINDOW 123 0 0 Left 0
WINDOW 39 0 0 Left 0
SYMATTR InstName V1
SYMATTR Value 3.3
SYMBOL OpAmps\\opamp2 -560 -208 R0
SYMATTR InstName U2
SYMATTR Value LMC648x
SYMBOL res -704 -240 R0
SYMATTR InstName R5
SYMATTR Value 6k2
SYMBOL res -704 -112 R0
SYMATTR InstName R6
SYMATTR Value 6k2
SYMBOL cap -800 -96 R0
SYMATTR InstName C4
SYMATTR Value 100n
SYMBOL res -400 -208 R90
WINDOW 0 0 56 VBottom 2
WINDOW 3 32 56 VTop 2
SYMATTR InstName R7
SYMATTR Value 3k
SYMBOL voltage -1136 368 R0
WINDOW 3 24 152 Left 2
WINDOW 123 24 124 Left 2
WINDOW 39 0 0 Left 0
SYMATTR Value SINE(0 0.065 800)
SYMATTR InstName V3
SYMBOL cap -752 240 R90
WINDOW 0 0 32 VBottom 2
WINDOW 3 32 32 VTop 2
SYMATTR InstName C5
SYMATTR Value 100µ
SYMBOL cap -656 240 R90
WINDOW 0 0 32 VBottom 2
WINDOW 3 32 32 VTop 2
SYMATTR InstName C6
SYMATTR Value 100µ
SYMBOL res -640 336 R90
WINDOW 0 0 56 VBottom 2
WINDOW 3 32 56 VTop 2
SYMATTR InstName R8
SYMATTR Value 100k
SYMBOL OpAmps\\opamp2 -560 176 R0
SYMATTR InstName U3
SYMATTR Value LMC648x
SYMBOL res -400 160 R90
WINDOW 0 0 56 VBottom 2
WINDOW 3 32 56 VTop 2
SYMATTR InstName R9
SYMATTR Value 100k
SYMBOL cap -752 512 R90
WINDOW 0 0 32 VBottom 2
WINDOW 3 32 32 VTop 2
SYMATTR InstName C7
SYMATTR Value 100µ
SYMBOL cap -656 512 R90
WINDOW 0 0 32 VBottom 2
WINDOW 3 32 32 VTop 2
SYMATTR InstName C8
SYMATTR Value 100µ
SYMBOL res -640 608 R90
WINDOW 0 0 56 VBottom 2
WINDOW 3 32 56 VTop 2
SYMATTR InstName R10
SYMATTR Value 100k
SYMBOL OpAmps\\opamp2 -560 448 R0
SYMATTR InstName U4
SYMATTR Value LMC648x
SYMBOL res -400 432 R90
WINDOW 0 0 56 VBottom 2
WINDOW 3 32 56 VTop 2
SYMATTR InstName R11
SYMATTR Value 100k
SYMBOL res -256 224 R90
WINDOW 0 0 56 VBottom 2
WINDOW 3 32 56 VTop 2
SYMATTR InstName R12
SYMATTR Value 3k
SYMBOL res -256 496 R90
WINDOW 0 0 56 VBottom 2
WINDOW 3 32 56 VTop 2
SYMATTR InstName R13
SYMATTR Value 3k
SYMBOL OpAmps\\opamp2 -160 464 R0
SYMATTR InstName U5
SYMATTR Value LMC648x
SYMBOL res -16 432 R90
WINDOW 0 0 56 VBottom 2
WINDOW 3 32 56 VTop 2
SYMATTR InstName R14
SYMATTR Value 60k
SYMBOL res -992 240 R90
WINDOW 0 0 56 VBottom 2
WINDOW 3 32 56 VTop 2
SYMATTR InstName R15
SYMATTR Value 10
TEXT -1152 40 Left 2 !.lib LMC648x.subckt
TEXT -1170 700 Left 2 !.tran 0.1
